<?xml version="1.0" encoding="UTF-8"?>
<routes>
  <!-- 背景车流 -->
  <vehicle id="1" depart="3.00">
    <route edges="main"/>
  </vehicle>
  <vehicle id="2" depart="6.00">
    <route edges="main"/>
  </vehicle>
  <vehicle id="3" depart="9.00">
    <route edges="main"/>
  </vehicle>
  <vehicle id="5" depart="15.00">
    <route edges="main"/>
  </vehicle>
  <vehicle id="4" depart="12.00">
    <route edges="main"/>
  </vehicle>
  <vehicle id="6" depart="18.00">
    <route edges="main"/>
  </vehicle>
  <vehicle id="7" depart="21.00">
    <route edges="main"/>
  </vehicle>
  <vehicle id="9" depart="27.00">
    <route edges="main"/>
  </vehicle>
  <vehicle id="8" depart="24.00">
    <route edges="main"/>
  </vehicle>
  <vehicle id="10" depart="30.00">
    <route edges="main"/>
  </vehicle>
  <vehicle id="11" depart="33.00">
    <route edges="main"/>
  </vehicle>
  <vehicle id="12" depart="36.00">
    <route edges="main"/>
  </vehicle>
  <!-- 自动驾驶测试车 -->
  <vehicle id="0" depart="39.00" color="1,0,0">
    <route edges="main"/>
  </vehicle>
  <vehicle id="13" depart="42.00">
    <route edges="main"/>
  </vehicle>
  <vehicle id="14" depart="45.00">
    <route edges="main"/>
  </vehicle>
  <vehicle id="15" depart="48.00">
    <route edges="main"/>
  </vehicle>
  <vehicle id="16" depart="51.00">
    <route edges="main"/>
  </vehicle>
  <vehicle id="18" depart="57.00">
    <route edges="main"/>
  </vehicle>
  <vehicle id="17" depart="54.00">
    <route edges="main"/>
  </vehicle>
  <vehicle id="19" depart="60.00">
    <route edges="main"/>
  </vehicle>
  <vehicle id="20" depart="63.00">
    <route edges="main"/>
  </vehicle>
  <vehicle id="21" depart="66.00">
    <route edges="main"/>
  </vehicle>
  <vehicle id="22" depart="69.00">
    <route edges="main"/>
  </vehicle>
  <vehicle id="23" depart="72.00">
    <route edges="main"/>
  </vehicle>
  <vehicle id="24" depart="75.00">
    <route edges="main"/>
  </vehicle>
  <vehicle id="25" depart="78.00">
    <route edges="main"/>
  </vehicle>
  <vehicle id="27" depart="84.00">
    <route edges="main"/>
  </vehicle>
  <vehicle id="26" depart="81.00">
    <route edges="main"/>
  </vehicle>
  <vehicle id="29" depart="90.00">
    <route edges="main"/>
  </vehicle>
  <vehicle id="28" depart="87.00">
    <route edges="main"/>
  </vehicle>
  <vehicle id="30" depart="93.00">
    <route edges="main"/>
  </vehicle>
  <vehicle id="31" depart="96.00">
    <route edges="main"/>
  </vehicle>
  <vehicle id="32" depart="99.00">
    <route edges="main"/>
  </vehicle>
  <vehicle id="33" depart="102.00">
    <route edges="main"/>
  </vehicle>
  <vehicle id="34" depart="105.00">
    <route edges="main"/>
  </vehicle>
  <vehicle id="35" depart="108.00">
    <route edges="main"/>
  </vehicle>
  <vehicle id="36" depart="111.00">
    <route edges="main"/>
  </vehicle>
  <vehicle id="37" depart="114.00">
    <route edges="main"/>
  </vehicle>
  <vehicle id="39" depart="120.00">
    <route edges="main"/>
  </vehicle>
  <vehicle id="38" depart="117.00">
    <route edges="main"/>
  </vehicle>
  <vehicle id="40" depart="123.00">
    <route edges="main"/>
  </vehicle>
  <vehicle id="41" depart="126.00">
    <route edges="main"/>
  </vehicle>
  <vehicle id="42" depart="129.00">
    <route edges="main"/>
  </vehicle>
  <vehicle id="43" depart="132.00">
    <route edges="main"/>
  </vehicle>
  <vehicle id="44" depart="135.00">
    <route edges="main"/>
  </vehicle>
  <vehicle id="45" depart="138.00">
    <route edges="main"/>
  </vehicle>
  <vehicle id="46" depart="141.00">
    <route edges="main"/>
  </vehicle>
  <vehicle id="47" depart="144.00">
    <route edges="main"/>
  </vehicle>
  <vehicle id="48" depart="147.00">
    <route edges="main"/>
  </vehicle>
  <vehicle id="50" depart="153.00">
    <route edges="main"/>
  </vehicle>
  <vehicle id="49" depart="150.00">
    <route edges="main"/>
  </vehicle>
  <vehicle id="51" depart="156.00">
    <route edges="main"/>
  </vehicle>
  <vehicle id="52" depart="159.00">
    <route edges="main"/>
  </vehicle>
  <vehicle id="53" depart="162.00">
    <route edges="main"/>
  </vehicle>
  <vehicle id="54" depart="165.00">
    <route edges="main"/>
  </vehicle>
  <vehicle id="56" depart="171.00">
    <route edges="main"/>
  </vehicle>
  <vehicle id="55" depart="168.00">
    <route edges="main"/>
  </vehicle>
  <vehicle id="57" depart="174.00">
    <route edges="main"/>
  </vehicle>
  <vehicle id="58" depart="177.00">
    <route edges="main"/>
  </vehicle>
  <vehicle id="59" depart="180.00">
    <route edges="main"/>
  </vehicle>
  <vehicle id="60" depart="184.00">
    <route edges="main"/>
  </vehicle>
  <vehicle id="61" depart="187.00">
    <route edges="main"/>
  </vehicle>
  <vehicle id="62" depart="190.00">
    <route edges="main"/>
  </vehicle>
  <vehicle id="63" depart="193.00">
    <route edges="main"/>
  </vehicle>
  <vehicle id="64" depart="196.00">
    <route edges="main"/>
  </vehicle>
  <vehicle id="65" depart="199.00">
    <route edges="main"/>
  </vehicle>
  <vehicle id="66" depart="202.00">
    <route edges="main"/>
  </vehicle>
  <vehicle id="67" depart="205.00">
    <route edges="main"/>
  </vehicle>
  <vehicle id="68" depart="208.00">
    <route edges="main"/>
  </vehicle>
  <vehicle id="69" depart="211.00">
    <route edges="main"/>
  </vehicle>
  <vehicle id="70" depart="214.00">
    <route edges="main"/>
  </vehicle>
  <vehicle id="71" depart="217.00">
    <route edges="main"/>
  </vehicle>
  <vehicle id="72" depart="220.00">
    <route edges="main"/>
  </vehicle>
  <vehicle id="73" depart="223.00">
    <route edges="main"/>
  </vehicle>
  <vehicle id="74" depart="226.00">
    <route edges="main"/>
  </vehicle>
  <vehicle id="75" depart="229.00">
    <route edges="main"/>
  </vehicle>
  <vehicle id="76" depart="232.00">
    <route edges="main"/>
  </vehicle>
  <vehicle id="77" depart="235.00">
    <route edges="main"/>
  </vehicle>
  <vehicle id="78" depart="238.00">
    <route edges="main"/>
  </vehicle>
  <vehicle id="79" depart="241.00">
    <route edges="main"/>
  </vehicle>
  <vehicle id="80" depart="244.00">
    <route edges="main"/>
  </vehicle>
  <vehicle id="81" depart="247.00">
    <route edges="main"/>
  </vehicle>
  <vehicle id="83" depart="253.00">
    <route edges="main"/>
  </vehicle>
  <vehicle id="82" depart="250.00">
    <route edges="main"/>
  </vehicle>
  <vehicle id="84" depart="256.00">
    <route edges="main"/>
  </vehicle>
  <vehicle id="85" depart="259.00">
    <route edges="main"/>
  </vehicle>
  <vehicle id="86" depart="262.00">
    <route edges="main"/>
  </vehicle>
  <vehicle id="87" depart="265.00">
    <route edges="main"/>
  </vehicle>
  <vehicle id="88" depart="268.00">
    <route edges="main"/>
  </vehicle>
  <vehicle id="89" depart="271.00">
    <route edges="main"/>
  </vehicle>
  <vehicle id="90" depart="274.00">
    <route edges="main"/>
  </vehicle>
  <vehicle id="93" depart="283.00">
    <route edges="main"/>
  </vehicle>
  <vehicle id="91" depart="277.00">
    <route edges="main"/>
  </vehicle>
  <vehicle id="92" depart="280.00">
    <route edges="main"/>
  </vehicle>
  <vehicle id="94" depart="286.00">
    <route edges="main"/>
  </vehicle>
  <vehicle id="95" depart="289.00">
    <route edges="main"/>
  </vehicle>
  <vehicle id="97" depart="295.00">
    <route edges="main"/>
  </vehicle>
  <vehicle id="96" depart="292.00">
    <route edges="main"/>
  </vehicle>
  <vehicle id="98" depart="298.00">
    <route edges="main"/>
  </vehicle>
  <vehicle id="99" depart="301.00">
    <route edges="main"/>
  </vehicle>
  <vehicle id="100" depart="305.00">
    <route edges="main"/>
  </vehicle>
  <vehicle id="101" depart="308.00">
    <route edges="main"/>
  </vehicle>
  <vehicle id="102" depart="311.00">
    <route edges="main"/>
  </vehicle>
  <vehicle id="104" depart="317.00">
    <route edges="main"/>
  </vehicle>
  <vehicle id="103" depart="314.00">
    <route edges="main"/>
  </vehicle>
  <vehicle id="105" depart="320.00">
    <route edges="main"/>
  </vehicle>
  <vehicle id="106" depart="323.00">
    <route edges="main"/>
  </vehicle>
  <vehicle id="107" depart="326.00">
    <route edges="main"/>
  </vehicle>
  <vehicle id="108" depart="329.00">
    <route edges="main"/>
  </vehicle>
  <vehicle id="109" depart="332.00">
    <route edges="main"/>
  </vehicle>
  <vehicle id="111" depart="338.00">
    <route edges="main"/>
  </vehicle>
  <vehicle id="110" depart="335.00">
    <route edges="main"/>
  </vehicle>
  <vehicle id="112" depart="341.00">
    <route edges="main"/>
  </vehicle>
  <vehicle id="113" depart="344.00">
    <route edges="main"/>
  </vehicle>
  <vehicle id="115" depart="350.00">
    <route edges="main"/>
  </vehicle>
  <vehicle id="114" depart="347.00">
    <route edges="main"/>
  </vehicle>
  <vehicle id="116" depart="353.00">
    <route edges="main"/>
  </vehicle>
  <vehicle id="117" depart="356.00">
    <route edges="main"/>
  </vehicle>
  <vehicle id="118" depart="359.00">
    <route edges="main"/>
  </vehicle>
  <vehicle id="119" depart="362.00">
    <route edges="main"/>
  </vehicle>
  <vehicle id="120" depart="365.00">
    <route edges="main"/>
  </vehicle>
  <vehicle id="121" depart="368.00">
    <route edges="main"/>
  </vehicle>
  <vehicle id="122" depart="371.00">
    <route edges="main"/>
  </vehicle>
  <vehicle id="123" depart="374.00">
    <route edges="main"/>
  </vehicle>
  <vehicle id="124" depart="377.00">
    <route edges="main"/>
  </vehicle>
  <vehicle id="125" depart="380.00">
    <route edges="main"/>
  </vehicle>
  <vehicle id="127" depart="386.00">
    <route edges="main"/>
  </vehicle>
  <vehicle id="126" depart="383.00">
    <route edges="main"/>
  </vehicle>
  <vehicle id="128" depart="389.00">
    <route edges="main"/>
  </vehicle>
  <vehicle id="129" depart="392.00">
    <route edges="main"/>
  </vehicle>
  <vehicle id="130" depart="395.00">
    <route edges="main"/>
  </vehicle>
  <vehicle id="131" depart="398.00">
    <route edges="main"/>
  </vehicle>
  <vehicle id="132" depart="401.00">
    <route edges="main"/>
  </vehicle>
  <vehicle id="133" depart="404.00">
    <route edges="main"/>
  </vehicle>
  <vehicle id="134" depart="407.00">
    <route edges="main"/>
  </vehicle>
  <vehicle id="135" depart="410.00">
    <route edges="main"/>
  </vehicle>
  <vehicle id="136" depart="413.00">
    <route edges="main"/>
  </vehicle>
  <vehicle id="137" depart="416.00">
    <route edges="main"/>
  </vehicle>
  <vehicle id="138" depart="419.00">
    <route edges="main"/>
  </vehicle>
  <vehicle id="139" depart="422.00">
    <route edges="main"/>
  </vehicle>
  <vehicle id="140" depart="425.00">
    <route edges="main"/>
  </vehicle>
  <vehicle id="141" depart="428.00">
    <route edges="main"/>
  </vehicle>
  <vehicle id="142" depart="431.00">
    <route edges="main"/>
  </vehicle>
  <vehicle id="144" depart="437.00">
    <route edges="main"/>
  </vehicle>
  <vehicle id="143" depart="434.00">
    <route edges="main"/>
  </vehicle>
  <vehicle id="145" depart="440.00">
    <route edges="main"/>
  </vehicle>
  <vehicle id="146" depart="443.00">
    <route edges="main"/>
  </vehicle>
  <vehicle id="147" depart="446.00">
    <route edges="main"/>
  </vehicle>
  <vehicle id="148" depart="449.00">
    <route edges="main"/>
  </vehicle>
  <vehicle id="149" depart="452.00">
    <route edges="main"/>
  </vehicle>
  <vehicle id="150" depart="455.00">
    <route edges="main"/>
  </vehicle>
  <vehicle id="151" depart="458.00">
    <route edges="main"/>
  </vehicle>
  <vehicle id="152" depart="461.00">
    <route edges="main"/>
  </vehicle>
  <vehicle id="153" depart="464.00">
    <route edges="main"/>
  </vehicle>
  <vehicle id="154" depart="467.00">
    <route edges="main"/>
  </vehicle>
  <vehicle id="155" depart="470.00">
    <route edges="main"/>
  </vehicle>
  <vehicle id="156" depart="473.00">
    <route edges="main"/>
  </vehicle>
  <vehicle id="158" depart="479.00">
    <route edges="main"/>
  </vehicle>
  <vehicle id="157" depart="476.00">
    <route edges="main"/>
  </vehicle>
  <vehicle id="160" depart="485.00">
    <route edges="main"/>
  </vehicle>
  <vehicle id="159" depart="482.00">
    <route edges="main"/>
  </vehicle>
  <vehicle id="161" depart="488.00">
    <route edges="main"/>
  </vehicle>
  <vehicle id="162" depart="491.00">
    <route edges="main"/>
  </vehicle>
  <vehicle id="163" depart="494.00">
    <route edges="main"/>
  </vehicle>
  <vehicle id="164" depart="497.00">
    <route edges="main"/>
  </vehicle>
  <vehicle id="165" depart="500.00">
    <route edges="main"/>
  </vehicle>
  <vehicle id="166" depart="503.00">
    <route edges="main"/>
  </vehicle>
  <vehicle id="167" depart="506.00">
    <route edges="main"/>
  </vehicle>
  <vehicle id="168" depart="509.00">
    <route edges="main"/>
  </vehicle>
  <vehicle id="169" depart="512.00">
    <route edges="main"/>
  </vehicle>
  <vehicle id="170" depart="515.00">
    <route edges="main"/>
  </vehicle>
  <vehicle id="172" depart="521.00">
    <route edges="main"/>
  </vehicle>
  <vehicle id="171" depart="518.00">
    <route edges="main"/>
  </vehicle>
  <vehicle id="173" depart="524.00">
    <route edges="main"/>
  </vehicle>
  <vehicle id="175" depart="530.00">
    <route edges="main"/>
  </vehicle>
  <vehicle id="174" depart="527.00">
    <route edges="main"/>
  </vehicle>
  <vehicle id="176" depart="533.00">
    <route edges="main"/>
  </vehicle>
  <vehicle id="177" depart="536.00">
    <route edges="main"/>
  </vehicle>
  <vehicle id="178" depart="539.00">
    <route edges="main"/>
  </vehicle>
  <vehicle id="179" depart="542.00">
    <route edges="main"/>
  </vehicle>
  <vehicle id="180" depart="545.00">
    <route edges="main"/>
  </vehicle>
  <vehicle id="181" depart="548.00">
    <route edges="main"/>
  </vehicle>
  <vehicle id="182" depart="551.00">
    <route edges="main"/>
  </vehicle>
  <vehicle id="183" depart="554.00">
    <route edges="main"/>
  </vehicle>
  <vehicle id="185" depart="560.00">
    <route edges="main"/>
  </vehicle>
  <vehicle id="184" depart="557.00">
    <route edges="main"/>
  </vehicle>
</routes>