<?xml version="1.0" encoding="UTF-8"?>

<!-- generated on 2025-12-02 19:39:17 by Eclipse SUMO netedit Version 1.15.0
<configuration xmlns:xsi="http://www.w3.org/2001/XMLSchema-instance" xsi:noNamespaceSchemaLocation="http://sumo.dlr.de/xsd/netconvertConfiguration.xsd">

    <input>
        <sumo-net-file value="E:\Analysis and Inference\Analysis and Inference\Autonomous Transportation Semantic Interaction Simulation Platform-2025.12-结题联合仿真 - under version\ATSISP\networkFiles\Vehicle_Vehicle_Interacting\Vehicle_Vehicle_Interacting.net.xml"/>
    </input>

    <output>
        <output-file value="E:\Analysis and Inference\Analysis and Inference\Autonomous Transportation Semantic Interaction Simulation Platform-2025.12-结题联合仿真 - under version\ATSISP\networkFiles\Vehicle_Vehicle_Interacting\Vehicle_Vehicle_Interacting.net.xml"/>
    </output>

    <processing>
        <geometry.min-radius.fix.railways value="false"/>
        <geometry.avoid-overlap value="0"/>
        <geometry.max-grade.fix value="false"/>
        <offset.disable-normalization value="true"/>
        <lefthand value="0"/>
    </processing>

    <junctions>
        <no-turnarounds value="true"/>
        <junctions.corner-detail value="5"/>
        <junctions.limit-turn-speed value="5.50"/>
        <rectangular-lane-cut value="0"/>
    </junctions>

    <pedestrian>
        <walkingareas value="0"/>
    </pedestrian>

</configuration>
-->

<net version="1.9" junctionCornerDetail="5" limitTurnSpeed="5.50" avoidOverlap="0" xmlns:xsi="http://www.w3.org/2001/XMLSchema-instance" xsi:noNamespaceSchemaLocation="http://sumo.dlr.de/xsd/net_file.xsd">

    <location netOffset="0.00,0.00" convBoundary="-100.00,-60.00,100.00,60.00" origBoundary="-10000000000.00,-10000000000.00,10000000000.00,10000000000.00" projParameter="!"/>

    <edge id=":7_0" function="internal">
        <lane id=":7_0_0" index="0" speed="6.51" length="9.03" shape="-4.80,10.40 -5.15,7.95 -6.20,6.20 -7.95,5.15 -10.40,4.80"/>
        <lane id=":7_0_1" index="1" speed="7.33" length="11.73" shape="-4.80,10.40 -5.15,6.55 -6.20,3.80 -7.95,2.15 -10.40,1.60"/>
    </edge>
    <edge id=":7_2" function="internal">
        <lane id=":7_2_0" index="0" speed="13.89" length="20.80" shape="-4.80,10.40 -4.80,-10.40"/>
        <lane id=":7_2_1" index="1" speed="13.89" length="20.80" shape="-1.60,10.40 -1.60,-10.40"/>
    </edge>
    <edge id=":7_4" function="internal">
        <lane id=":7_4_0" index="0" speed="9.84" length="6.30" shape="-1.60,10.40 -0.89,4.14"/>
        <lane id=":7_4_1" index="1" speed="9.26" length="5.01" shape="-1.60,10.40 -0.89,5.44"/>
    </edge>
    <edge id=":7_24" function="internal">
        <lane id=":7_24_0" index="0" speed="9.84" length="15.70" shape="-0.89,4.14 -0.85,3.75 1.40,-1.00 5.15,-3.85 10.40,-4.80"/>
    </edge>
    <edge id=":7_25" function="internal">
        <lane id=":7_25_0" index="0" speed="9.26" length="14.34" shape="-0.89,5.44 -0.85,5.15 1.40,1.40 5.15,-0.85 10.40,-1.60"/>
    </edge>
    <edge id=":7_6" function="internal">
        <lane id=":7_6_0" index="0" speed="6.51" length="9.03" shape="10.40,4.80 7.95,5.15 6.20,6.20 5.15,7.95 4.80,10.40"/>
        <lane id=":7_6_1" index="1" speed="7.33" length="11.73" shape="10.40,4.80 6.55,5.15 3.80,6.20 2.15,7.95 1.60,10.40"/>
    </edge>
    <edge id=":7_8" function="internal">
        <lane id=":7_8_0" index="0" speed="13.89" length="20.80" shape="10.40,4.80 -10.40,4.80"/>
        <lane id=":7_8_1" index="1" speed="13.89" length="20.80" shape="10.40,1.60 -10.40,1.60"/>
    </edge>
    <edge id=":7_10" function="internal">
        <lane id=":7_10_0" index="0" speed="9.84" length="6.30" shape="10.40,1.60 4.14,0.89"/>
        <lane id=":7_10_1" index="1" speed="9.26" length="5.01" shape="10.40,1.60 5.44,0.89"/>
    </edge>
    <edge id=":7_26" function="internal">
        <lane id=":7_26_0" index="0" speed="9.84" length="15.70" shape="4.14,0.89 3.75,0.85 -1.00,-1.40 -3.85,-5.15 -4.80,-10.40"/>
    </edge>
    <edge id=":7_27" function="internal">
        <lane id=":7_27_0" index="0" speed="9.26" length="14.34" shape="5.44,0.89 5.15,0.85 1.40,-1.40 -0.85,-5.15 -1.60,-10.40"/>
    </edge>
    <edge id=":7_12" function="internal">
        <lane id=":7_12_0" index="0" speed="6.51" length="9.03" shape="4.80,-10.40 5.15,-7.95 6.20,-6.20 7.95,-5.15 10.40,-4.80"/>
        <lane id=":7_12_1" index="1" speed="7.33" length="11.73" shape="4.80,-10.40 5.15,-6.55 6.20,-3.80 7.95,-2.15 10.40,-1.60"/>
    </edge>
    <edge id=":7_14" function="internal">
        <lane id=":7_14_0" index="0" speed="13.89" length="20.80" shape="4.80,-10.40 4.80,10.40"/>
        <lane id=":7_14_1" index="1" speed="13.89" length="20.80" shape="1.60,-10.40 1.60,10.40"/>
    </edge>
    <edge id=":7_16" function="internal">
        <lane id=":7_16_0" index="0" speed="9.84" length="6.30" shape="1.60,-10.40 0.89,-4.14"/>
        <lane id=":7_16_1" index="1" speed="9.26" length="5.01" shape="1.60,-10.40 0.89,-5.44"/>
    </edge>
    <edge id=":7_28" function="internal">
        <lane id=":7_28_0" index="0" speed="9.84" length="15.70" shape="0.89,-4.14 0.85,-3.75 -1.40,1.00 -5.15,3.85 -10.40,4.80"/>
    </edge>
    <edge id=":7_29" function="internal">
        <lane id=":7_29_0" index="0" speed="9.26" length="14.34" shape="0.89,-5.44 0.85,-5.15 -1.40,-1.40 -5.15,0.85 -10.40,1.60"/>
    </edge>
    <edge id=":7_18" function="internal">
        <lane id=":7_18_0" index="0" speed="6.51" length="9.03" shape="-10.40,-4.80 -7.95,-5.15 -6.20,-6.20 -5.15,-7.95 -4.80,-10.40"/>
        <lane id=":7_18_1" index="1" speed="7.33" length="11.73" shape="-10.40,-4.80 -6.55,-5.15 -3.80,-6.20 -2.15,-7.95 -1.60,-10.40"/>
    </edge>
    <edge id=":7_20" function="internal">
        <lane id=":7_20_0" index="0" speed="13.89" length="20.80" shape="-10.40,-4.80 10.40,-4.80"/>
        <lane id=":7_20_1" index="1" speed="13.89" length="20.80" shape="-10.40,-1.60 10.40,-1.60"/>
    </edge>
    <edge id=":7_22" function="internal">
        <lane id=":7_22_0" index="0" speed="9.84" length="6.30" shape="-10.40,-1.60 -4.14,-0.89"/>
        <lane id=":7_22_1" index="1" speed="9.26" length="5.01" shape="-10.40,-1.60 -5.44,-0.89"/>
    </edge>
    <edge id=":7_30" function="internal">
        <lane id=":7_30_0" index="0" speed="9.84" length="15.70" shape="-4.14,-0.89 -3.75,-0.85 1.00,1.40 3.85,5.15 4.80,10.40"/>
    </edge>
    <edge id=":7_31" function="internal">
        <lane id=":7_31_0" index="0" speed="9.26" length="14.34" shape="-5.44,-0.89 -5.15,-0.85 -1.40,1.40 0.85,5.15 1.60,10.40"/>
    </edge>

    <edge id="-10" from="j4" to="7" priority="-1">
        <lane id="-10_0" index="0" speed="13.89" length="49.60" shape="-4.80,60.00 -4.80,10.40"/>
        <lane id="-10_1" index="1" speed="13.89" length="49.60" shape="-1.60,60.00 -1.60,10.40"/>
    </edge>
    <edge id="-11" from="j3" to="7" priority="-1">
        <lane id="-11_0" index="0" speed="13.89" length="49.60" shape="4.80,-60.00 4.80,-10.40"/>
        <lane id="-11_1" index="1" speed="13.89" length="49.60" shape="1.60,-60.00 1.60,-10.40"/>
    </edge>
    <edge id="-8" from="7" to="j0" priority="-1">
        <lane id="-8_0" index="0" speed="13.89" length="89.60" shape="-10.40,4.80 -100.00,4.80"/>
        <lane id="-8_1" index="1" speed="13.89" length="89.60" shape="-10.40,1.60 -100.00,1.60"/>
    </edge>
    <edge id="-9" from="j2" to="7" priority="-1">
        <lane id="-9_0" index="0" speed="13.89" length="89.60" shape="100.00,4.80 10.40,4.80"/>
        <lane id="-9_1" index="1" speed="13.89" length="89.60" shape="100.00,1.60 10.40,1.60"/>
    </edge>
    <edge id="10" from="7" to="j4" priority="-1">
        <lane id="10_0" index="0" speed="13.89" length="49.60" shape="4.80,10.40 4.80,60.00"/>
        <lane id="10_1" index="1" speed="13.89" length="49.60" shape="1.60,10.40 1.60,60.00"/>
    </edge>
    <edge id="11" from="7" to="j3" priority="-1">
        <lane id="11_0" index="0" speed="13.89" length="49.60" shape="-4.80,-10.40 -4.80,-60.00"/>
        <lane id="11_1" index="1" speed="13.89" length="49.60" shape="-1.60,-10.40 -1.60,-60.00"/>
    </edge>
    <edge id="8" from="j0" to="7" priority="-1">
        <lane id="8_0" index="0" speed="13.89" length="89.60" shape="-100.00,-4.80 -10.40,-4.80"/>
        <lane id="8_1" index="1" speed="13.89" length="89.60" shape="-100.00,-1.60 -10.40,-1.60"/>
    </edge>
    <edge id="9" from="7" to="j2" priority="-1">
        <lane id="9_0" index="0" speed="13.89" length="89.60" shape="10.40,-4.80 100.00,-4.80"/>
        <lane id="9_1" index="1" speed="13.89" length="89.60" shape="10.40,-1.60 100.00,-1.60"/>
    </edge>

    <tlLogic id="7" type="static" programID="0" offset="0">
        <phase duration="42" state="GGGGggrrrrrrGGGGggrrrrrr"/>
        <phase duration="3"  state="yyyyyyrrrrrryyyyyyrrrrrr"/>
        <phase duration="42" state="rrrrrrGGGGggrrrrrrGGGGgg"/>
        <phase duration="3"  state="rrrrrryyyyyyrrrrrryyyyyy"/>
    </tlLogic>

    <junction id="7" type="traffic_light" x="0.00" y="0.00" incLanes="-10_0 -10_1 -9_0 -9_1 -11_0 -11_1 8_0 8_1" intLanes=":7_0_0 :7_0_1 :7_2_0 :7_2_1 :7_24_0 :7_25_0 :7_6_0 :7_6_1 :7_8_0 :7_8_1 :7_26_0 :7_27_0 :7_12_0 :7_12_1 :7_14_0 :7_14_1 :7_28_0 :7_29_0 :7_18_0 :7_18_1 :7_20_0 :7_20_1 :7_30_0 :7_31_0" shape="-6.40,10.40 6.40,10.40 6.84,8.18 7.40,7.40 8.18,6.84 9.18,6.51 10.40,6.40 10.40,-6.40 8.18,-6.84 7.40,-7.40 6.84,-8.18 6.51,-9.18 6.40,-10.40 -6.40,-10.40 -6.84,-8.18 -7.40,-7.40 -8.18,-6.84 -9.18,-6.51 -10.40,-6.40 -10.40,6.40 -8.18,6.84 -7.40,7.40 -6.84,8.18 -6.51,9.18">
        <request index="0"  response="000000000000000000000000" foes="000000110000001100000000" cont="0"/>
        <request index="1"  response="000000000000000000000000" foes="000000110000001100000000" cont="0"/>
        <request index="2"  response="110000000000110000000000" foes="111111110000111100000000" cont="0"/>
        <request index="3"  response="110000000000110000000000" foes="111111110000111100000000" cont="0"/>
        <request index="4"  response="110000011111110000000000" foes="111100011111111100000000" cont="1"/>
        <request index="5"  response="110000001111110000000000" foes="111100001111111100000000" cont="1"/>
        <request index="6"  response="000000001100000000000000" foes="110000001100000000000000" cont="0"/>
        <request index="7"  response="000000001100000000000000" foes="110000001100000000000000" cont="0"/>
        <request index="8"  response="000000111100000000111111" foes="110000111100000000111111" cont="0"/>
        <request index="9"  response="000000111100000000111111" foes="110000111100000000111111" cont="0"/>
        <request index="10" response="011111111100000000111100" foes="011111111100000000111100" cont="1"/>
        <request index="11" response="001111111100000000111100" foes="001111111100000000111100" cont="1"/>
        <request index="12" response="000000000000000000000000" foes="001100000000000000110000" cont="0"/>
        <request index="13" response="000000000000000000000000" foes="001100000000000000110000" cont="0"/>
        <request index="14" response="110000000000110000000000" foes="111100000000111111110000" cont="0"/>
        <request index="15" response="110000000000110000000000" foes="111100000000111111110000" cont="0"/>
        <request index="16" response="110000000000110000001111" foes="111100000000111100011111" cont="1"/>
        <request index="17" response="110000000000110000001111" foes="111100000000111100001111" cont="1"/>
        <request index="18" response="000000000000000000001100" foes="000000000000110000001100" cont="0"/>
        <request index="19" response="000000000000000000001100" foes="000000000000110000001100" cont="0"/>
        <request index="20" response="000000111111000000111100" foes="000000111111110000111100" cont="0"/>
        <request index="21" response="000000111111000000111100" foes="000000111111110000111100" cont="0"/>
        <request index="22" response="000000111100001111111100" foes="000000111100011111111100" cont="1"/>
        <request index="23" response="000000111100001111111100" foes="000000111100001111111100" cont="1"/>
    </junction>
    <junction id="j0" type="dead_end" x="-100.00" y="0.00" incLanes="-8_0 -8_1" intLanes="" shape="-100.00,0.00 -100.00,6.40 -100.00,0.00"/>
    <junction id="j2" type="dead_end" x="100.00" y="0.00" incLanes="9_0 9_1" intLanes="" shape="100.00,0.00 100.00,-6.40 100.00,0.00"/>
    <junction id="j3" type="dead_end" x="0.00" y="-60.00" incLanes="11_0 11_1" intLanes="" shape="0.00,-60.00 -6.40,-60.00 0.00,-60.00"/>
    <junction id="j4" type="dead_end" x="0.00" y="60.00" incLanes="10_0 10_1" intLanes="" shape="0.00,60.00 6.40,60.00 0.00,60.00"/>

    <junction id=":7_24_0" type="internal" x="-0.89" y="4.14" incLanes=":7_4_0 -11_0 -11_1" intLanes=":7_8_0 :7_8_1 :7_10_0 :7_10_1 :7_12_0 :7_12_1 :7_14_0 :7_14_1 :7_20_0 :7_20_1 :7_22_0 :7_22_1"/>
    <junction id=":7_25_0" type="internal" x="-0.89" y="5.44" incLanes=":7_4_1 -11_0 -11_1" intLanes=":7_8_0 :7_8_1 :7_10_0 :7_10_1 :7_12_0 :7_12_1 :7_14_0 :7_14_1 :7_20_0 :7_20_1 :7_22_0 :7_22_1"/>
    <junction id=":7_26_0" type="internal" x="4.14" y="0.89" incLanes=":7_10_0 8_0 8_1" intLanes=":7_2_0 :7_2_1 :7_4_0 :7_4_1 :7_14_0 :7_14_1 :7_16_0 :7_16_1 :7_18_0 :7_18_1 :7_20_0 :7_20_1"/>
    <junction id=":7_27_0" type="internal" x="5.44" y="0.89" incLanes=":7_10_1 8_0 8_1" intLanes=":7_2_0 :7_2_1 :7_4_0 :7_4_1 :7_14_0 :7_14_1 :7_16_0 :7_16_1 :7_18_0 :7_18_1 :7_20_0 :7_20_1"/>
    <junction id=":7_28_0" type="internal" x="0.89" y="-4.14" incLanes=":7_16_0 -10_0 -10_1" intLanes=":7_0_0 :7_0_1 :7_2_0 :7_2_1 :7_8_0 :7_8_1 :7_10_0 :7_10_1 :7_20_0 :7_20_1 :7_22_0 :7_22_1"/>
    <junction id=":7_29_0" type="internal" x="0.89" y="-5.44" incLanes=":7_16_1 -10_0 -10_1" intLanes=":7_0_0 :7_0_1 :7_2_0 :7_2_1 :7_8_0 :7_8_1 :7_10_0 :7_10_1 :7_20_0 :7_20_1 :7_22_0 :7_22_1"/>
    <junction id=":7_30_0" type="internal" x="-4.14" y="-0.89" incLanes=":7_22_0 -9_0 -9_1" intLanes=":7_2_0 :7_2_1 :7_4_0 :7_4_1 :7_6_0 :7_6_1 :7_8_0 :7_8_1 :7_14_0 :7_14_1 :7_16_0 :7_16_1"/>
    <junction id=":7_31_0" type="internal" x="-5.44" y="-0.89" incLanes=":7_22_1 -9_0 -9_1" intLanes=":7_2_0 :7_2_1 :7_4_0 :7_4_1 :7_6_0 :7_6_1 :7_8_0 :7_8_1 :7_14_0 :7_14_1 :7_16_0 :7_16_1"/>

    <connection from="-10" to="-8" fromLane="0" toLane="0" via=":7_0_0" tl="7" linkIndex="0" dir="r" state="O"/>
    <connection from="-10" to="-8" fromLane="0" toLane="1" via=":7_0_1" tl="7" linkIndex="1" dir="r" state="O"/>
    <connection from="-10" to="11" fromLane="0" toLane="0" via=":7_2_0" tl="7" linkIndex="2" dir="s" state="O"/>
    <connection from="-10" to="11" fromLane="1" toLane="1" via=":7_2_1" tl="7" linkIndex="3" dir="s" state="O"/>
    <connection from="-10" to="9" fromLane="1" toLane="0" via=":7_4_0" tl="7" linkIndex="4" dir="l" state="o"/>
    <connection from="-10" to="9" fromLane="1" toLane="1" via=":7_4_1" tl="7" linkIndex="5" dir="l" state="o"/>
    <connection from="-11" to="9" fromLane="0" toLane="0" via=":7_12_0" tl="7" linkIndex="12" dir="r" state="O"/>
    <connection from="-11" to="9" fromLane="0" toLane="1" via=":7_12_1" tl="7" linkIndex="13" dir="r" state="O"/>
    <connection from="-11" to="10" fromLane="0" toLane="0" via=":7_14_0" tl="7" linkIndex="14" dir="s" state="O"/>
    <connection from="-11" to="10" fromLane="1" toLane="1" via=":7_14_1" tl="7" linkIndex="15" dir="s" state="O"/>
    <connection from="-11" to="-8" fromLane="1" toLane="0" via=":7_16_0" tl="7" linkIndex="16" dir="l" state="o"/>
    <connection from="-11" to="-8" fromLane="1" toLane="1" via=":7_16_1" tl="7" linkIndex="17" dir="l" state="o"/>
    <connection from="-9" to="10" fromLane="0" toLane="0" via=":7_6_0" tl="7" linkIndex="6" dir="r" state="o"/>
    <connection from="-9" to="10" fromLane="0" toLane="1" via=":7_6_1" tl="7" linkIndex="7" dir="r" state="o"/>
    <connection from="-9" to="-8" fromLane="0" toLane="0" via=":7_8_0" tl="7" linkIndex="8" dir="s" state="o"/>
    <connection from="-9" to="-8" fromLane="1" toLane="1" via=":7_8_1" tl="7" linkIndex="9" dir="s" state="o"/>
    <connection from="-9" to="11" fromLane="1" toLane="0" via=":7_10_0" tl="7" linkIndex="10" dir="l" state="o"/>
    <connection from="-9" to="11" fromLane="1" toLane="1" via=":7_10_1" tl="7" linkIndex="11" dir="l" state="o"/>
    <connection from="8" to="11" fromLane="0" toLane="0" via=":7_18_0" tl="7" linkIndex="18" dir="r" state="o"/>
    <connection from="8" to="11" fromLane="0" toLane="1" via=":7_18_1" tl="7" linkIndex="19" dir="r" state="o"/>
    <connection from="8" to="9" fromLane="0" toLane="0" via=":7_20_0" tl="7" linkIndex="20" dir="s" state="o"/>
    <connection from="8" to="9" fromLane="1" toLane="1" via=":7_20_1" tl="7" linkIndex="21" dir="s" state="o"/>
    <connection from="8" to="10" fromLane="1" toLane="0" via=":7_22_0" tl="7" linkIndex="22" dir="l" state="o"/>
    <connection from="8" to="10" fromLane="1" toLane="1" via=":7_22_1" tl="7" linkIndex="23" dir="l" state="o"/>

    <connection from=":7_0" to="-8" fromLane="0" toLane="0" dir="r" state="M"/>
    <connection from=":7_0" to="-8" fromLane="1" toLane="1" dir="r" state="M"/>
    <connection from=":7_2" to="11" fromLane="0" toLane="0" dir="s" state="M"/>
    <connection from=":7_2" to="11" fromLane="1" toLane="1" dir="s" state="M"/>
    <connection from=":7_4" to="9" fromLane="0" toLane="0" via=":7_24_0" dir="l" state="m"/>
    <connection from=":7_24" to="9" fromLane="0" toLane="0" dir="l" state="M"/>
    <connection from=":7_4" to="9" fromLane="1" toLane="1" via=":7_25_0" dir="l" state="m"/>
    <connection from=":7_25" to="9" fromLane="0" toLane="1" dir="l" state="M"/>
    <connection from=":7_6" to="10" fromLane="0" toLane="0" dir="r" state="M"/>
    <connection from=":7_6" to="10" fromLane="1" toLane="1" dir="r" state="M"/>
    <connection from=":7_8" to="-8" fromLane="0" toLane="0" dir="s" state="M"/>
    <connection from=":7_8" to="-8" fromLane="1" toLane="1" dir="s" state="M"/>
    <connection from=":7_10" to="11" fromLane="0" toLane="0" via=":7_26_0" dir="l" state="m"/>
    <connection from=":7_26" to="11" fromLane="0" toLane="0" dir="l" state="M"/>
    <connection from=":7_10" to="11" fromLane="1" toLane="1" via=":7_27_0" dir="l" state="m"/>
    <connection from=":7_27" to="11" fromLane="0" toLane="1" dir="l" state="M"/>
    <connection from=":7_12" to="9" fromLane="0" toLane="0" dir="r" state="M"/>
    <connection from=":7_12" to="9" fromLane="1" toLane="1" dir="r" state="M"/>
    <connection from=":7_14" to="10" fromLane="0" toLane="0" dir="s" state="M"/>
    <connection from=":7_14" to="10" fromLane="1" toLane="1" dir="s" state="M"/>
    <connection from=":7_16" to="-8" fromLane="0" toLane="0" via=":7_28_0" dir="l" state="m"/>
    <connection from=":7_28" to="-8" fromLane="0" toLane="0" dir="l" state="M"/>
    <connection from=":7_16" to="-8" fromLane="1" toLane="1" via=":7_29_0" dir="l" state="m"/>
    <connection from=":7_29" to="-8" fromLane="0" toLane="1" dir="l" state="M"/>
    <connection from=":7_18" to="11" fromLane="0" toLane="0" dir="r" state="M"/>
    <connection from=":7_18" to="11" fromLane="1" toLane="1" dir="r" state="M"/>
    <connection from=":7_20" to="9" fromLane="0" toLane="0" dir="s" state="M"/>
    <connection from=":7_20" to="9" fromLane="1" toLane="1" dir="s" state="M"/>
    <connection from=":7_22" to="10" fromLane="0" toLane="0" via=":7_30_0" dir="l" state="m"/>
    <connection from=":7_30" to="10" fromLane="0" toLane="0" dir="l" state="M"/>
    <connection from=":7_22" to="10" fromLane="1" toLane="1" via=":7_31_0" dir="l" state="m"/>
    <connection from=":7_31" to="10" fromLane="0" toLane="1" dir="l" state="M"/>

</net>
