<?xml version="1.0" encoding="UTF-8"?>
<!-- generated on 2025-10-27 21:10:19 by Eclipse SUMO netedit Version 1.24.0
-->
<routes xmlns:xsi="http://www.w3.org/2001/XMLSchema-instance" xsi:noNamespaceSchemaLocation="http://sumo.dlr.de/xsd/routes_file.xsd">
    <!-- Vehicles, persons and containers (sorted by depart) -->
    <vehicle id="M1" depart="0.00" departLane="0" departPos="0.00">
        <route edges="E0 E0.19"/>
    </vehicle>
    <vehicle id="M2" depart="1.00" departLane="0" departPos="0.00">
        <route edges="E0 E0.19"/>
        <stop lane="E0_0" endPos="30" until="10"/>
    </vehicle>
    <vehicle id="HV" depart="3.00" departLane="0" departPos="0.00">
        <route edges="E1 E0.19"/>
    </vehicle>
</routes>