<?xml version="1.0" encoding="UTF-8"?>

<!-- generated on 2026-01-15 15:52:53 by Eclipse SUMO netedit Version 1.15.0
<configuration xmlns:xsi="http://www.w3.org/2001/XMLSchema-instance" xsi:noNamespaceSchemaLocation="http://sumo.dlr.de/xsd/netconvertConfiguration.xsd">

    <input>
        <sumo-net-file value="E:\Analysis and Inference\Analysis and Inference\1\-AutonomousTransportationSystem-TrafficSemanticRepresentationLanguage-TSRL-SimulationPlatform\networkFiles\Vehicle_Vehicle_Collaboration\Vehicle_Vehicle_Collaboration.net.xml"/>
    </input>

    <output>
        <output-file value="E:\Analysis and Inference\Analysis and Inference\1\-AutonomousTransportationSystem-TrafficSemanticRepresentationLanguage-TSRL-SimulationPlatform\networkFiles\Vehicle_Vehicle_Collaboration\Vehicle_Vehicle_Collaboration.net.xml"/>
    </output>

    <processing>
        <geometry.min-radius.fix.railways value="false"/>
        <geometry.max-grade.fix value="false"/>
        <offset.disable-normalization value="true"/>
        <lefthand value="0"/>
    </processing>

    <junctions>
        <no-turnarounds value="true"/>
        <junctions.corner-detail value="5"/>
        <junctions.limit-turn-speed value="5.50"/>
        <rectangular-lane-cut value="0"/>
    </junctions>

    <pedestrian>
        <walkingareas value="0"/>
    </pedestrian>

</configuration>
-->

<net version="1.9" junctionCornerDetail="5" limitTurnSpeed="5.50" xmlns:xsi="http://www.w3.org/2001/XMLSchema-instance" xsi:noNamespaceSchemaLocation="http://sumo.dlr.de/xsd/net_file.xsd">

    <location netOffset="0.00,0.00" convBoundary="-40.00,27.58,80.00,60.00" origBoundary="-10000000000.00,-10000000000.00,10000000000.00,10000000000.00" projParameter="!"/>

    <edge id=":J4_0" function="internal">
        <lane id=":J4_0_0" index="0" speed="12.30" length="8.75" shape="14.86,54.64 16.94,56.22 18.40,57.40 19.99,58.14 22.47,58.40"/>
    </edge>
    <edge id=":J4_1" function="internal">
        <lane id=":J4_1_0" index="0" speed="13.89" length="8.76" shape="13.71,58.40 22.47,58.40"/>
    </edge>

    <edge id="-E0" from="J1" to="J0" priority="-1">
        <lane id="-E0_0" index="0" speed="13.89" length="120.00" shape="80.00,61.60 -40.00,61.60"/>
    </edge>
    <edge id="E0" from="J0" to="J4" priority="-1">
        <lane id="E0_0" index="0" speed="13.89" length="53.71" shape="-40.00,58.40 13.71,58.40"/>
    </edge>
    <edge id="E0.19" from="J4" to="J1" priority="-1">
        <lane id="E0.19_0" index="0" speed="13.89" length="57.53" shape="22.47,58.40 80.00,58.40"/>
    </edge>
    <edge id="E1" from="J5" to="J4" priority="-1">
        <lane id="E1_0" index="0" speed="13.89" length="51.07" shape="-27.60,26.25 14.86,54.64"/>
    </edge>

    <junction id="J0" type="dead_end" x="-40.00" y="60.00" incLanes="-E0_0" intLanes="" shape="-40.00,60.00 -40.00,63.20 -40.00,60.00"/>
    <junction id="J1" type="dead_end" x="80.00" y="60.00" incLanes="E0.19_0" intLanes="" shape="80.00,60.00 80.00,56.80 80.00,60.00"/>
    <junction id="J4" type="priority" x="20.00" y="60.00" incLanes="E1_0 E0_0" intLanes=":J4_0_0 :J4_1_0" shape="22.47,60.00 22.47,56.80 19.74,56.36 18.87,55.84 18.05,55.15 17.07,54.30 15.75,53.31 13.97,55.97 14.49,56.43 14.53,56.59 14.41,56.71 14.14,56.78 13.71,56.80 13.71,60.00">
        <request index="0" response="00" foes="10" cont="0"/>
        <request index="1" response="01" foes="01" cont="0"/>
    </junction>
    <junction id="J5" type="dead_end" x="-28.49" y="27.58" incLanes="" intLanes="" shape="-28.49,27.58 -26.71,24.92"/>

    <connection from="E0" to="E0.19" fromLane="0" toLane="0" via=":J4_1_0" dir="s" state="m"/>
    <connection from="E1" to="E0.19" fromLane="0" toLane="0" via=":J4_0_0" dir="s" state="M"/>

    <connection from=":J4_0" to="E0.19" fromLane="0" toLane="0" dir="s" state="M"/>
    <connection from=":J4_1" to="E0.19" fromLane="0" toLane="0" dir="s" state="M"/>

</net>
