<!-- rsu.add.xml -->
<additional>
  <!-- SUMO可视化   -->
  <poi id="RSU_1" x="0" y="55" plot_detect_length="20" color="1,0,0" layer="5"/>
  <!-- 检测区域 -->
  <!--pos="400" length="20"表示以400为起点，向前20m路线长度内进行侦测-->
</additional>