<?xml version='1.0' encoding='utf-8'?>
<routes xmlns:xsi="http://www.w3.org/2001/XMLSchema-instance" xsi:noNamespaceSchemaLocation="http://sumo.dlr.de/xsd/routes_file.xsd">
    <vehicle id="0" depart="0.00" >
        <route edges="10 12"/>
        <stop lane="12_0" endPos="30" until="100"/>
    </vehicle>
    <vehicle id="1" depart="5.00" >
        <route edges="10 12"/>
    </vehicle>  
</routes>